[board]
type=System
children=apicbridge bridge cache_hierarchy clk_domain dvfs_handler iobus memory oracle_gpu pc processor workload
auto_unlink_shared_backstore=false
cache_line_size=64
eventq_index=0
exit_on_work_items=true
init_param=0
m5ops_base=4294901760
mem_mode=atomic_noncaching
mem_ranges=0:3221225472 3221225472:3222274048
memories=board.memory.mem_ctrl.dram
mmap_using_noreserve=false
multi_thread=false
num_work_ids=16
readfile=./oraclegpu-kvm-m5out/readfile
redirect_paths=
shadow_rom_ranges=
shared_backstore=
symbolfile=
thermal_components=
thermal_model=Null
work_begin_ckpt_count=0
work_begin_cpu_id_exit=-1
work_begin_exit_count=0
work_cpus_ckpt_count=0
work_end_ckpt_count=0
work_end_exit_count=0
work_item_id=-1
workload=board.workload
system_port=board.cache_hierarchy.membus.cpu_side_ports[1]

[board.apicbridge]
type=Bridge
children=power_state
clk_domain=board.clk_domain
delay=50000
eventq_index=0
power_model=
power_state=board.apicbridge.power_state
ranges=11529215046068469760:11529215046068473855
req_size=16
resp_size=16
cpu_side_port=board.iobus.mem_side_ports[0]
mem_side_port=board.cache_hierarchy.membus.cpu_side_ports[0]

[board.apicbridge.power_state]
type=PowerState
clk_gate_bins=20
clk_gate_max=1000000000000
clk_gate_min=1000
default_state=UNDEFINED
eventq_index=0
leaders=
possible_states=

[board.bridge]
type=Bridge
children=power_state
clk_domain=board.clk_domain
delay=50000
eventq_index=0
power_model=
power_state=board.bridge.power_state
ranges=3221225472:4294901760 9223372036854775808:11529215046068469759 13835058055282163712:18446744073709551615
req_size=16
resp_size=16
cpu_side_port=board.cache_hierarchy.membus.mem_side_ports[0]
mem_side_port=board.iobus.cpu_side_ports[0]

[board.bridge.power_state]
type=PowerState
clk_gate_bins=20
clk_gate_max=1000000000000
clk_gate_min=1000
default_state=UNDEFINED
eventq_index=0
leaders=
possible_states=

[board.cache_hierarchy]
type=SubSystem
children=dptw_caches iocache iptw_caches l1dcaches l1icaches l2buses l2caches l3bus l3cache membus
eventq_index=0
thermal_domain=Null

[board.cache_hierarchy.dptw_caches]
type=Cache
children=power_state replacement_policy tags
addr_ranges=0:18446744073709551615
assoc=4
clk_domain=board.clk_domain
clusivity=mostly_incl
compressor=Null
data_latency=1
demand_mshr_reserve=1
eventq_index=0
is_read_only=false
max_miss_count=0
move_contractions=true
mshrs=20
power_model=
power_state=board.cache_hierarchy.dptw_caches.power_state
prefetcher=Null
replace_expansions=true
replacement_policy=board.cache_hierarchy.dptw_caches.replacement_policy
response_latency=1
sequential_access=false
size=262144
system=board
tag_latency=1
tags=board.cache_hierarchy.dptw_caches.tags
tgts_per_mshr=12
warmup_percentage=0
write_allocator=Null
write_buffers=8
writeback_clean=false
cpu_side=board.processor.start.core.mmu.dtb.walker.port
mem_side=board.cache_hierarchy.l2buses.cpu_side_ports[3]

[board.cache_hierarchy.dptw_caches.power_state]
type=PowerState
clk_gate_bins=20
clk_gate_max=1000000000000
clk_gate_min=1000
default_state=UNDEFINED
eventq_index=0
leaders=
possible_states=

[board.cache_hierarchy.dptw_caches.replacement_policy]
type=LRURP
eventq_index=0

[board.cache_hierarchy.dptw_caches.tags]
type=BaseSetAssoc
children=indexing_policy power_state
assoc=4
block_size=64
clk_domain=board.clk_domain
entry_size=64
eventq_index=0
indexing_policy=board.cache_hierarchy.dptw_caches.tags.indexing_policy
power_model=
power_state=board.cache_hierarchy.dptw_caches.tags.power_state
replacement_policy=board.cache_hierarchy.dptw_caches.replacement_policy
sequential_access=false
size=262144
system=board
tag_latency=1
warmup_percentage=0

[board.cache_hierarchy.dptw_caches.tags.indexing_policy]
type=SetAssociative
assoc=4
entry_size=64
eventq_index=0
size=262144

[board.cache_hierarchy.dptw_caches.tags.power_state]
type=PowerState
clk_gate_bins=20
clk_gate_max=1000000000000
clk_gate_min=1000
default_state=UNDEFINED
eventq_index=0
leaders=
possible_states=

[board.cache_hierarchy.iocache]
type=Cache
children=power_state replacement_policy tags
addr_ranges=0:3221225472 3221225472:3222274048
assoc=8
clk_domain=board.clk_domain
clusivity=mostly_incl
compressor=Null
data_latency=50
demand_mshr_reserve=1
eventq_index=0
is_read_only=false
max_miss_count=0
move_contractions=true
mshrs=32
power_model=
power_state=board.cache_hierarchy.iocache.power_state
prefetcher=Null
replace_expansions=true
replacement_policy=board.cache_hierarchy.iocache.replacement_policy
response_latency=50
sequential_access=false
size=262144
system=board
tag_latency=50
tags=board.cache_hierarchy.iocache.tags
tgts_per_mshr=12
warmup_percentage=0
write_allocator=Null
write_buffers=32
writeback_clean=false
cpu_side=board.iobus.mem_side_ports[17]
mem_side=board.cache_hierarchy.membus.cpu_side_ports[2]

[board.cache_hierarchy.iocache.power_state]
type=PowerState
clk_gate_bins=20
clk_gate_max=1000000000000
clk_gate_min=1000
default_state=UNDEFINED
eventq_index=0
leaders=
possible_states=

[board.cache_hierarchy.iocache.replacement_policy]
type=LRURP
eventq_index=0

[board.cache_hierarchy.iocache.tags]
type=BaseSetAssoc
children=indexing_policy power_state
assoc=8
block_size=64
clk_domain=board.clk_domain
entry_size=64
eventq_index=0
indexing_policy=board.cache_hierarchy.iocache.tags.indexing_policy
power_model=
power_state=board.cache_hierarchy.iocache.tags.power_state
replacement_policy=board.cache_hierarchy.iocache.replacement_policy
sequential_access=false
size=262144
system=board
tag_latency=50
warmup_percentage=0

[board.cache_hierarchy.iocache.tags.indexing_policy]
type=SetAssociative
assoc=8
entry_size=64
eventq_index=0
size=262144

[board.cache_hierarchy.iocache.tags.power_state]
type=PowerState
clk_gate_bins=20
clk_gate_max=1000000000000
clk_gate_min=1000
default_state=UNDEFINED
eventq_index=0
leaders=
possible_states=

[board.cache_hierarchy.iptw_caches]
type=Cache
children=power_state replacement_policy tags
addr_ranges=0:18446744073709551615
assoc=4
clk_domain=board.clk_domain
clusivity=mostly_incl
compressor=Null
data_latency=1
demand_mshr_reserve=1
eventq_index=0
is_read_only=false
max_miss_count=0
move_contractions=true
mshrs=20
power_model=
power_state=board.cache_hierarchy.iptw_caches.power_state
prefetcher=Null
replace_expansions=true
replacement_policy=board.cache_hierarchy.iptw_caches.replacement_policy
response_latency=1
sequential_access=false
size=262144
system=board
tag_latency=1
tags=board.cache_hierarchy.iptw_caches.tags
tgts_per_mshr=12
warmup_percentage=0
write_allocator=Null
write_buffers=8
writeback_clean=false
cpu_side=board.processor.start.core.mmu.itb.walker.port
mem_side=board.cache_hierarchy.l2buses.cpu_side_ports[2]

[board.cache_hierarchy.iptw_caches.power_state]
type=PowerState
clk_gate_bins=20
clk_gate_max=1000000000000
clk_gate_min=1000
default_state=UNDEFINED
eventq_index=0
leaders=
possible_states=

[board.cache_hierarchy.iptw_caches.replacement_policy]
type=LRURP
eventq_index=0

[board.cache_hierarchy.iptw_caches.tags]
type=BaseSetAssoc
children=indexing_policy power_state
assoc=4
block_size=64
clk_domain=board.clk_domain
entry_size=64
eventq_index=0
indexing_policy=board.cache_hierarchy.iptw_caches.tags.indexing_policy
power_model=
power_state=board.cache_hierarchy.iptw_caches.tags.power_state
replacement_policy=board.cache_hierarchy.iptw_caches.replacement_policy
sequential_access=false
size=262144
system=board
tag_latency=1
warmup_percentage=0

[board.cache_hierarchy.iptw_caches.tags.indexing_policy]
type=SetAssociative
assoc=4
entry_size=64
eventq_index=0
size=262144

[board.cache_hierarchy.iptw_caches.tags.power_state]
type=PowerState
clk_gate_bins=20
clk_gate_max=1000000000000
clk_gate_min=1000
default_state=UNDEFINED
eventq_index=0
leaders=
possible_states=

[board.cache_hierarchy.l1dcaches]
type=Cache
children=power_state prefetcher replacement_policy tags
addr_ranges=0:18446744073709551615
assoc=8
clk_domain=board.clk_domain
clusivity=mostly_incl
compressor=Null
data_latency=3
demand_mshr_reserve=1
eventq_index=0
is_read_only=false
max_miss_count=0
move_contractions=true
mshrs=16
power_model=
power_state=board.cache_hierarchy.l1dcaches.power_state
prefetcher=board.cache_hierarchy.l1dcaches.prefetcher
replace_expansions=true
replacement_policy=board.cache_hierarchy.l1dcaches.replacement_policy
response_latency=1
sequential_access=false
size=32768
system=board
tag_latency=3
tags=board.cache_hierarchy.l1dcaches.tags
tgts_per_mshr=20
warmup_percentage=0
write_allocator=Null
write_buffers=16
writeback_clean=true
cpu_side=board.processor.start.core.dcache_port
mem_side=board.cache_hierarchy.l2buses.cpu_side_ports[1]

[board.cache_hierarchy.l1dcaches.power_state]
type=PowerState
clk_gate_bins=20
clk_gate_max=1000000000000
clk_gate_min=1000
default_state=UNDEFINED
eventq_index=0
leaders=
possible_states=

[board.cache_hierarchy.l1dcaches.prefetcher]
type=IndirectMemoryPrefetcher
children=ipd_table_indexing_policy ipd_table_replacement_policy power_state pt_table_indexing_policy pt_table_replacement_policy
addr_array_len=4
block_size=64
cache_snoop=false
clk_domain=board.clk_domain
eventq_index=0
ipd_table_assoc=4
ipd_table_entries=4
ipd_table_indexing_policy=board.cache_hierarchy.l1dcaches.prefetcher.ipd_table_indexing_policy
ipd_table_replacement_policy=board.cache_hierarchy.l1dcaches.prefetcher.ipd_table_replacement_policy
latency=1
max_prefetch_distance=16
max_prefetch_requests_with_pending_translation=32
num_indirect_counter_bits=3
on_data=true
on_inst=true
on_miss=false
on_read=true
on_write=true
page_bytes=4096
power_model=
power_state=board.cache_hierarchy.l1dcaches.prefetcher.power_state
prefetch_on_access=false
prefetch_on_pf_hit=false
prefetch_threshold=2
pt_table_assoc=16
pt_table_entries=32
pt_table_indexing_policy=board.cache_hierarchy.l1dcaches.prefetcher.pt_table_indexing_policy
pt_table_replacement_policy=board.cache_hierarchy.l1dcaches.prefetcher.pt_table_replacement_policy
queue_filter=true
queue_size=64
queue_squash=true
shift_values=2 3 4 -3
stream_counter_threshold=4
streaming_distance=4
sys=board
tag_prefetch=true
throttle_control_percentage=0
use_virtual_addresses=false

[board.cache_hierarchy.l1dcaches.prefetcher.ipd_table_indexing_policy]
type=SetAssociative
assoc=4
entry_size=1
eventq_index=0
size=4

[board.cache_hierarchy.l1dcaches.prefetcher.ipd_table_replacement_policy]
type=LRURP
eventq_index=0

[board.cache_hierarchy.l1dcaches.prefetcher.power_state]
type=PowerState
clk_gate_bins=20
clk_gate_max=1000000000000
clk_gate_min=1000
default_state=UNDEFINED
eventq_index=0
leaders=
possible_states=

[board.cache_hierarchy.l1dcaches.prefetcher.pt_table_indexing_policy]
type=SetAssociative
assoc=16
entry_size=1
eventq_index=0
size=32

[board.cache_hierarchy.l1dcaches.prefetcher.pt_table_replacement_policy]
type=LRURP
eventq_index=0

[board.cache_hierarchy.l1dcaches.replacement_policy]
type=LRURP
eventq_index=0

[board.cache_hierarchy.l1dcaches.tags]
type=BaseSetAssoc
children=indexing_policy power_state
assoc=8
block_size=64
clk_domain=board.clk_domain
entry_size=64
eventq_index=0
indexing_policy=board.cache_hierarchy.l1dcaches.tags.indexing_policy
power_model=
power_state=board.cache_hierarchy.l1dcaches.tags.power_state
replacement_policy=board.cache_hierarchy.l1dcaches.replacement_policy
sequential_access=false
size=32768
system=board
tag_latency=3
warmup_percentage=0

[board.cache_hierarchy.l1dcaches.tags.indexing_policy]
type=SetAssociative
assoc=8
entry_size=64
eventq_index=0
size=32768

[board.cache_hierarchy.l1dcaches.tags.power_state]
type=PowerState
clk_gate_bins=20
clk_gate_max=1000000000000
clk_gate_min=1000
default_state=UNDEFINED
eventq_index=0
leaders=
possible_states=

[board.cache_hierarchy.l1icaches]
type=Cache
children=power_state prefetcher replacement_policy tags
addr_ranges=0:18446744073709551615
assoc=8
clk_domain=board.clk_domain
clusivity=mostly_incl
compressor=Null
data_latency=1
demand_mshr_reserve=1
eventq_index=0
is_read_only=false
max_miss_count=0
move_contractions=true
mshrs=20
power_model=
power_state=board.cache_hierarchy.l1icaches.power_state
prefetcher=board.cache_hierarchy.l1icaches.prefetcher
replace_expansions=true
replacement_policy=board.cache_hierarchy.l1icaches.replacement_policy
response_latency=1
sequential_access=false
size=32768
system=board
tag_latency=1
tags=board.cache_hierarchy.l1icaches.tags
tgts_per_mshr=20
warmup_percentage=0
write_allocator=Null
write_buffers=8
writeback_clean=false
cpu_side=board.processor.start.core.icache_port
mem_side=board.cache_hierarchy.l2buses.cpu_side_ports[0]

[board.cache_hierarchy.l1icaches.power_state]
type=PowerState
clk_gate_bins=20
clk_gate_max=1000000000000
clk_gate_min=1000
default_state=UNDEFINED
eventq_index=0
leaders=
possible_states=

[board.cache_hierarchy.l1icaches.prefetcher]
type=IndirectMemoryPrefetcher
children=ipd_table_indexing_policy ipd_table_replacement_policy power_state pt_table_indexing_policy pt_table_replacement_policy
addr_array_len=4
block_size=64
cache_snoop=false
clk_domain=board.clk_domain
eventq_index=0
ipd_table_assoc=4
ipd_table_entries=4
ipd_table_indexing_policy=board.cache_hierarchy.l1icaches.prefetcher.ipd_table_indexing_policy
ipd_table_replacement_policy=board.cache_hierarchy.l1icaches.prefetcher.ipd_table_replacement_policy
latency=1
max_prefetch_distance=16
max_prefetch_requests_with_pending_translation=32
num_indirect_counter_bits=3
on_data=true
on_inst=true
on_miss=false
on_read=true
on_write=true
page_bytes=4096
power_model=
power_state=board.cache_hierarchy.l1icaches.prefetcher.power_state
prefetch_on_access=false
prefetch_on_pf_hit=false
prefetch_threshold=2
pt_table_assoc=16
pt_table_entries=32
pt_table_indexing_policy=board.cache_hierarchy.l1icaches.prefetcher.pt_table_indexing_policy
pt_table_replacement_policy=board.cache_hierarchy.l1icaches.prefetcher.pt_table_replacement_policy
queue_filter=true
queue_size=64
queue_squash=true
shift_values=2 3 4 -3
stream_counter_threshold=4
streaming_distance=4
sys=board
tag_prefetch=true
throttle_control_percentage=0
use_virtual_addresses=false

[board.cache_hierarchy.l1icaches.prefetcher.ipd_table_indexing_policy]
type=SetAssociative
assoc=4
entry_size=1
eventq_index=0
size=4

[board.cache_hierarchy.l1icaches.prefetcher.ipd_table_replacement_policy]
type=LRURP
eventq_index=0

[board.cache_hierarchy.l1icaches.prefetcher.power_state]
type=PowerState
clk_gate_bins=20
clk_gate_max=1000000000000
clk_gate_min=1000
default_state=UNDEFINED
eventq_index=0
leaders=
possible_states=

[board.cache_hierarchy.l1icaches.prefetcher.pt_table_indexing_policy]
type=SetAssociative
assoc=16
entry_size=1
eventq_index=0
size=32

[board.cache_hierarchy.l1icaches.prefetcher.pt_table_replacement_policy]
type=LRURP
eventq_index=0

[board.cache_hierarchy.l1icaches.replacement_policy]
type=LRURP
eventq_index=0

[board.cache_hierarchy.l1icaches.tags]
type=BaseSetAssoc
children=indexing_policy power_state
assoc=8
block_size=64
clk_domain=board.clk_domain
entry_size=64
eventq_index=0
indexing_policy=board.cache_hierarchy.l1icaches.tags.indexing_policy
power_model=
power_state=board.cache_hierarchy.l1icaches.tags.power_state
replacement_policy=board.cache_hierarchy.l1icaches.replacement_policy
sequential_access=false
size=32768
system=board
tag_latency=1
warmup_percentage=0

[board.cache_hierarchy.l1icaches.tags.indexing_policy]
type=SetAssociative
assoc=8
entry_size=64
eventq_index=0
size=32768

[board.cache_hierarchy.l1icaches.tags.power_state]
type=PowerState
clk_gate_bins=20
clk_gate_max=1000000000000
clk_gate_min=1000
default_state=UNDEFINED
eventq_index=0
leaders=
possible_states=

[board.cache_hierarchy.l2buses]
type=CoherentXBar
children=power_state snoop_filter
clk_domain=board.clk_domain
eventq_index=0
forward_latency=0
frontend_latency=1
header_latency=1
max_outstanding_snoops=2048
max_routing_table_size=2048
point_of_coherency=false
point_of_unification=true
power_model=
power_state=board.cache_hierarchy.l2buses.power_state
response_latency=1
snoop_filter=board.cache_hierarchy.l2buses.snoop_filter
snoop_response_latency=1
system=board
use_default_range=false
width=64
cpu_side_ports=board.cache_hierarchy.l1icaches.mem_side board.cache_hierarchy.l1dcaches.mem_side board.cache_hierarchy.iptw_caches.mem_side board.cache_hierarchy.dptw_caches.mem_side
mem_side_ports=board.cache_hierarchy.l2caches.cpu_side

[board.cache_hierarchy.l2buses.power_state]
type=PowerState
clk_gate_bins=20
clk_gate_max=1000000000000
clk_gate_min=1000
default_state=UNDEFINED
eventq_index=0
leaders=
possible_states=

[board.cache_hierarchy.l2buses.snoop_filter]
type=SnoopFilter
eventq_index=0
lookup_latency=0
max_capacity=402653184
system=board

[board.cache_hierarchy.l2caches]
type=Cache
children=power_state prefetcher replacement_policy tags
addr_ranges=0:18446744073709551615
assoc=16
clk_domain=board.clk_domain
clusivity=mostly_excl
compressor=Null
data_latency=10
demand_mshr_reserve=1
eventq_index=0
is_read_only=false
max_miss_count=0
move_contractions=true
mshrs=20
power_model=
power_state=board.cache_hierarchy.l2caches.power_state
prefetcher=board.cache_hierarchy.l2caches.prefetcher
replace_expansions=true
replacement_policy=board.cache_hierarchy.l2caches.replacement_policy
response_latency=1
sequential_access=false
size=262144
system=board
tag_latency=10
tags=board.cache_hierarchy.l2caches.tags
tgts_per_mshr=12
warmup_percentage=0
write_allocator=Null
write_buffers=20
writeback_clean=true
cpu_side=board.cache_hierarchy.l2buses.mem_side_ports[0]
mem_side=board.cache_hierarchy.l3bus.cpu_side_ports[0]

[board.cache_hierarchy.l2caches.power_state]
type=PowerState
clk_gate_bins=20
clk_gate_max=1000000000000
clk_gate_min=1000
default_state=UNDEFINED
eventq_index=0
leaders=
possible_states=

[board.cache_hierarchy.l2caches.prefetcher]
type=MultiPrefetcher
children=power_state prefetchers0 prefetchers1 prefetchers2
block_size=64
clk_domain=board.clk_domain
eventq_index=0
on_data=true
on_inst=true
on_miss=false
on_read=true
on_write=true
page_bytes=4096
power_model=
power_state=board.cache_hierarchy.l2caches.prefetcher.power_state
prefetch_on_access=false
prefetch_on_pf_hit=false
prefetchers=board.cache_hierarchy.l2caches.prefetcher.prefetchers0 board.cache_hierarchy.l2caches.prefetcher.prefetchers1 board.cache_hierarchy.l2caches.prefetcher.prefetchers2
sys=board
use_virtual_addresses=false

[board.cache_hierarchy.l2caches.prefetcher.power_state]
type=PowerState
clk_gate_bins=20
clk_gate_max=1000000000000
clk_gate_min=1000
default_state=UNDEFINED
eventq_index=0
leaders=
possible_states=

[board.cache_hierarchy.l2caches.prefetcher.prefetchers0]
type=SignaturePathPrefetcher
children=pattern_table_indexing_policy pattern_table_replacement_policy power_state signature_table_indexing_policy signature_table_replacement_policy
block_size=64
cache_snoop=false
clk_domain=board.clk_domain
eventq_index=0
latency=1
lookahead_confidence_threshold=0.275
max_prefetch_requests_with_pending_translation=32
num_counter_bits=3
on_data=true
on_inst=true
on_miss=false
on_read=true
on_write=true
page_bytes=4096
pattern_table_assoc=1
pattern_table_entries=4096
pattern_table_indexing_policy=board.cache_hierarchy.l2caches.prefetcher.prefetchers0.pattern_table_indexing_policy
pattern_table_replacement_policy=board.cache_hierarchy.l2caches.prefetcher.prefetchers0.pattern_table_replacement_policy
power_model=
power_state=board.cache_hierarchy.l2caches.prefetcher.prefetchers0.power_state
prefetch_confidence_threshold=0.25
prefetch_on_access=false
prefetch_on_pf_hit=false
queue_filter=true
queue_size=64
queue_squash=true
signature_bits=12
signature_shift=3
signature_table_assoc=2
signature_table_entries=1024
signature_table_indexing_policy=board.cache_hierarchy.l2caches.prefetcher.prefetchers0.signature_table_indexing_policy
signature_table_replacement_policy=board.cache_hierarchy.l2caches.prefetcher.prefetchers0.signature_table_replacement_policy
strides_per_pattern_entry=4
sys=board
tag_prefetch=true
throttle_control_percentage=0
use_virtual_addresses=false

[board.cache_hierarchy.l2caches.prefetcher.prefetchers0.pattern_table_indexing_policy]
type=SetAssociative
assoc=1
entry_size=1
eventq_index=0
size=4096

[board.cache_hierarchy.l2caches.prefetcher.prefetchers0.pattern_table_replacement_policy]
type=LRURP
eventq_index=0

[board.cache_hierarchy.l2caches.prefetcher.prefetchers0.power_state]
type=PowerState
clk_gate_bins=20
clk_gate_max=1000000000000
clk_gate_min=1000
default_state=UNDEFINED
eventq_index=0
leaders=
possible_states=

[board.cache_hierarchy.l2caches.prefetcher.prefetchers0.signature_table_indexing_policy]
type=SetAssociative
assoc=2
entry_size=1
eventq_index=0
size=1024

[board.cache_hierarchy.l2caches.prefetcher.prefetchers0.signature_table_replacement_policy]
type=LRURP
eventq_index=0

[board.cache_hierarchy.l2caches.prefetcher.prefetchers1]
type=AMPMPrefetcher
children=ampm power_state
ampm=board.cache_hierarchy.l2caches.prefetcher.prefetchers1.ampm
block_size=64
cache_snoop=false
clk_domain=board.clk_domain
eventq_index=0
latency=1
max_prefetch_requests_with_pending_translation=32
on_data=true
on_inst=true
on_miss=false
on_read=true
on_write=true
page_bytes=4096
power_model=
power_state=board.cache_hierarchy.l2caches.prefetcher.prefetchers1.power_state
prefetch_on_access=false
prefetch_on_pf_hit=false
queue_filter=true
queue_size=64
queue_squash=true
sys=board
tag_prefetch=true
throttle_control_percentage=0
use_virtual_addresses=false

[board.cache_hierarchy.l2caches.prefetcher.prefetchers1.ampm]
type=AccessMapPatternMatching
children=access_map_table_indexing_policy access_map_table_replacement_policy power_state
access_map_table_assoc=8
access_map_table_entries=256
access_map_table_indexing_policy=board.cache_hierarchy.l2caches.prefetcher.prefetchers1.ampm.access_map_table_indexing_policy
access_map_table_replacement_policy=board.cache_hierarchy.l2caches.prefetcher.prefetchers1.ampm.access_map_table_replacement_policy
block_size=64
clk_domain=board.clk_domain
epoch_cycles=256000
eventq_index=0
high_accuracy_threshold=0.5
high_cache_hit_threshold=0.875
high_coverage_threshold=0.25
hot_zone_size=2048
limit_stride=0
low_accuracy_threshold=0.25
low_cache_hit_threshold=0.75
low_coverage_threshold=0.125
offchip_memory_latency=30000
power_model=
power_state=board.cache_hierarchy.l2caches.prefetcher.prefetchers1.ampm.power_state
start_degree=4

[board.cache_hierarchy.l2caches.prefetcher.prefetchers1.ampm.access_map_table_indexing_policy]
type=SetAssociative
assoc=8
entry_size=1
eventq_index=0
size=256

[board.cache_hierarchy.l2caches.prefetcher.prefetchers1.ampm.access_map_table_replacement_policy]
type=LRURP
eventq_index=0

[board.cache_hierarchy.l2caches.prefetcher.prefetchers1.ampm.power_state]
type=PowerState
clk_gate_bins=20
clk_gate_max=1000000000000
clk_gate_min=1000
default_state=UNDEFINED
eventq_index=0
leaders=
possible_states=

[board.cache_hierarchy.l2caches.prefetcher.prefetchers1.power_state]
type=PowerState
clk_gate_bins=20
clk_gate_max=1000000000000
clk_gate_min=1000
default_state=UNDEFINED
eventq_index=0
leaders=
possible_states=

[board.cache_hierarchy.l2caches.prefetcher.prefetchers2]
type=DCPTPrefetcher
children=dcpt power_state
block_size=64
cache_snoop=false
clk_domain=board.clk_domain
dcpt=board.cache_hierarchy.l2caches.prefetcher.prefetchers2.dcpt
eventq_index=0
latency=1
max_prefetch_requests_with_pending_translation=32
on_data=true
on_inst=true
on_miss=false
on_read=true
on_write=true
page_bytes=4096
power_model=
power_state=board.cache_hierarchy.l2caches.prefetcher.prefetchers2.power_state
prefetch_on_access=false
prefetch_on_pf_hit=false
queue_filter=true
queue_size=64
queue_squash=true
sys=board
tag_prefetch=true
throttle_control_percentage=0
use_virtual_addresses=false

[board.cache_hierarchy.l2caches.prefetcher.prefetchers2.dcpt]
type=DeltaCorrelatingPredictionTables
children=table_indexing_policy table_replacement_policy
delta_bits=12
delta_mask_bits=8
deltas_per_entry=20
eventq_index=0
table_assoc=128
table_entries=128
table_indexing_policy=board.cache_hierarchy.l2caches.prefetcher.prefetchers2.dcpt.table_indexing_policy
table_replacement_policy=board.cache_hierarchy.l2caches.prefetcher.prefetchers2.dcpt.table_replacement_policy

[board.cache_hierarchy.l2caches.prefetcher.prefetchers2.dcpt.table_indexing_policy]
type=SetAssociative
assoc=128
entry_size=1
eventq_index=0
size=128

[board.cache_hierarchy.l2caches.prefetcher.prefetchers2.dcpt.table_replacement_policy]
type=LRURP
eventq_index=0

[board.cache_hierarchy.l2caches.prefetcher.prefetchers2.power_state]
type=PowerState
clk_gate_bins=20
clk_gate_max=1000000000000
clk_gate_min=1000
default_state=UNDEFINED
eventq_index=0
leaders=
possible_states=

[board.cache_hierarchy.l2caches.replacement_policy]
type=LRURP
eventq_index=0

[board.cache_hierarchy.l2caches.tags]
type=BaseSetAssoc
children=indexing_policy power_state
assoc=16
block_size=64
clk_domain=board.clk_domain
entry_size=64
eventq_index=0
indexing_policy=board.cache_hierarchy.l2caches.tags.indexing_policy
power_model=
power_state=board.cache_hierarchy.l2caches.tags.power_state
replacement_policy=board.cache_hierarchy.l2caches.replacement_policy
sequential_access=false
size=262144
system=board
tag_latency=10
warmup_percentage=0

[board.cache_hierarchy.l2caches.tags.indexing_policy]
type=SetAssociative
assoc=16
entry_size=64
eventq_index=0
size=262144

[board.cache_hierarchy.l2caches.tags.power_state]
type=PowerState
clk_gate_bins=20
clk_gate_max=1000000000000
clk_gate_min=1000
default_state=UNDEFINED
eventq_index=0
leaders=
possible_states=

[board.cache_hierarchy.l3bus]
type=CoherentXBar
children=power_state snoop_filter
clk_domain=board.clk_domain
eventq_index=0
forward_latency=0
frontend_latency=1
header_latency=1
max_outstanding_snoops=2048
max_routing_table_size=2048
point_of_coherency=false
point_of_unification=true
power_model=
power_state=board.cache_hierarchy.l3bus.power_state
response_latency=1
snoop_filter=board.cache_hierarchy.l3bus.snoop_filter
snoop_response_latency=1
system=board
use_default_range=false
width=64
cpu_side_ports=board.cache_hierarchy.l2caches.mem_side
mem_side_ports=board.cache_hierarchy.l3cache.cpu_side

[board.cache_hierarchy.l3bus.power_state]
type=PowerState
clk_gate_bins=20
clk_gate_max=1000000000000
clk_gate_min=1000
default_state=UNDEFINED
eventq_index=0
leaders=
possible_states=

[board.cache_hierarchy.l3bus.snoop_filter]
type=SnoopFilter
eventq_index=0
lookup_latency=0
max_capacity=402653184
system=board

[board.cache_hierarchy.l3cache]
type=Cache
children=power_state prefetcher replacement_policy tags
addr_ranges=0:18446744073709551615
assoc=16
clk_domain=board.clk_domain
clusivity=mostly_excl
compressor=Null
data_latency=96
demand_mshr_reserve=1
eventq_index=0
is_read_only=false
max_miss_count=0
move_contractions=true
mshrs=384
power_model=
power_state=board.cache_hierarchy.l3cache.power_state
prefetcher=board.cache_hierarchy.l3cache.prefetcher
replace_expansions=true
replacement_policy=board.cache_hierarchy.l3cache.replacement_policy
response_latency=1
sequential_access=false
size=8388608
system=board
tag_latency=96
tags=board.cache_hierarchy.l3cache.tags
tgts_per_mshr=32
warmup_percentage=0
write_allocator=Null
write_buffers=256
writeback_clean=false
cpu_side=board.cache_hierarchy.l3bus.mem_side_ports[0]
mem_side=board.cache_hierarchy.membus.cpu_side_ports[4]

[board.cache_hierarchy.l3cache.power_state]
type=PowerState
clk_gate_bins=20
clk_gate_max=1000000000000
clk_gate_min=1000
default_state=UNDEFINED
eventq_index=0
leaders=
possible_states=

[board.cache_hierarchy.l3cache.prefetcher]
type=MultiPrefetcher
children=power_state prefetchers0 prefetchers1 prefetchers2
block_size=64
clk_domain=board.clk_domain
eventq_index=0
on_data=true
on_inst=true
on_miss=false
on_read=true
on_write=true
page_bytes=4096
power_model=
power_state=board.cache_hierarchy.l3cache.prefetcher.power_state
prefetch_on_access=false
prefetch_on_pf_hit=false
prefetchers=board.cache_hierarchy.l3cache.prefetcher.prefetchers0 board.cache_hierarchy.l3cache.prefetcher.prefetchers1 board.cache_hierarchy.l3cache.prefetcher.prefetchers2
sys=board
use_virtual_addresses=false

[board.cache_hierarchy.l3cache.prefetcher.power_state]
type=PowerState
clk_gate_bins=20
clk_gate_max=1000000000000
clk_gate_min=1000
default_state=UNDEFINED
eventq_index=0
leaders=
possible_states=

[board.cache_hierarchy.l3cache.prefetcher.prefetchers0]
type=SignaturePathPrefetcher
children=pattern_table_indexing_policy pattern_table_replacement_policy power_state signature_table_indexing_policy signature_table_replacement_policy
block_size=64
cache_snoop=false
clk_domain=board.clk_domain
eventq_index=0
latency=1
lookahead_confidence_threshold=0.275
max_prefetch_requests_with_pending_translation=32
num_counter_bits=3
on_data=true
on_inst=true
on_miss=false
on_read=true
on_write=true
page_bytes=4096
pattern_table_assoc=1
pattern_table_entries=4096
pattern_table_indexing_policy=board.cache_hierarchy.l3cache.prefetcher.prefetchers0.pattern_table_indexing_policy
pattern_table_replacement_policy=board.cache_hierarchy.l3cache.prefetcher.prefetchers0.pattern_table_replacement_policy
power_model=
power_state=board.cache_hierarchy.l3cache.prefetcher.prefetchers0.power_state
prefetch_confidence_threshold=0.25
prefetch_on_access=false
prefetch_on_pf_hit=false
queue_filter=true
queue_size=64
queue_squash=true
signature_bits=12
signature_shift=3
signature_table_assoc=2
signature_table_entries=1024
signature_table_indexing_policy=board.cache_hierarchy.l3cache.prefetcher.prefetchers0.signature_table_indexing_policy
signature_table_replacement_policy=board.cache_hierarchy.l3cache.prefetcher.prefetchers0.signature_table_replacement_policy
strides_per_pattern_entry=4
sys=board
tag_prefetch=true
throttle_control_percentage=0
use_virtual_addresses=false

[board.cache_hierarchy.l3cache.prefetcher.prefetchers0.pattern_table_indexing_policy]
type=SetAssociative
assoc=1
entry_size=1
eventq_index=0
size=4096
